4
Time step 0
F 1.157521 -0.581235 0.037490
C 0.003297 0.086097 -0.008212
O 0.004836 1.305903 -0.091173
F -1.163675 -0.572598 0.044457
4
Time step 1
F 1.159250 -0.581168 0.037916
C 0.006211 0.084926 -0.010276
O 0.004650 1.307542 -0.090722
F -1.167088 -0.573304 0.044954
4
Time step 2
F 1.160974 -0.581109 0.038337
C 0.009047 0.083819 -0.012313
O 0.004478 1.309139 -0.090276
F -1.170459 -0.574009 0.045445
4
Time step 3
F 1.162695 -0.581058 0.038751
C 0.011796 0.082781 -0.014317
O 0.004321 1.310691 -0.089837
F -1.173784 -0.574711 0.045928
4
Time step 4
F 1.164411 -0.581014 0.039158
C 0.014473 0.081806 -0.016292
O 0.004177 1.312202 -0.089405
F -1.177069 -0.575412 0.046403
4
Time step 5
F 1.166121 -0.580976 0.039561
C 0.017109 0.080884 -0.018244
O 0.004039 1.313681 -0.088977
F -1.180328 -0.576112 0.046873
4
Time step 6
F 1.167820 -0.580941 0.039961
C 0.019739 0.080001 -0.020186
O 0.003902 1.315137 -0.088551
F -1.183573 -0.576815 0.047341
4
Time step 7
F 1.169508 -0.580909 0.040362
C 0.022389 0.079144 -0.022130
O 0.003759 1.316579 -0.088125
F -1.186815 -0.577520 0.047809
4
Time step 8
F 1.171184 -0.580880 0.040765
C 0.025072 0.078308 -0.024087
O 0.003609 1.318012 -0.087695
F -1.190058 -0.578227 0.048280
4
Time step 9
F 1.172847 -0.580854 0.041171
C 0.027782 0.077491 -0.026060
O 0.003450 1.319436 -0.087260
F -1.193300 -0.578937 0.048754
4
Time step 10
F 1.174500 -0.580831 0.041581
C 0.030503 0.076702 -0.028048
O 0.003287 1.320845 -0.086822
F -1.196534 -0.579647 0.049232
4
Time step 11
F 1.176143 -0.580812 0.041993
C 0.033215 0.075949 -0.030047
O 0.003124 1.322231 -0.086380
F -1.199753 -0.580357 0.049710
4
Time step 12
F 1.177780 -0.580799 0.042405
C 0.035902 0.075244 -0.032050
O 0.002964 1.323588 -0.085937
F -1.202952 -0.581067 0.050189
4
Time step 13
F 1.179411 -0.580791 0.042817
C 0.038554 0.074597 -0.034048
O 0.002810 1.324909 -0.085494
F -1.206129 -0.581779 0.050666
4
Time step 14
F 1.181036 -0.580788 0.043228
C 0.041172 0.074013 -0.036037
O 0.002664 1.326191 -0.085052
F -1.209285 -0.582492 0.051141
4
Time step 15
F 1.182654 -0.580791 0.043635
C 0.043764 0.073494 -0.038015
O 0.002524 1.327435 -0.084613
F -1.212422 -0.583209 0.051613
4
Time step 16
F 1.184264 -0.580798 0.044041
C 0.046338 0.073035 -0.039984
O 0.002389 1.328643 -0.084176
F -1.215544 -0.583928 0.052082
4
Time step 17
F 1.185864 -0.580810 0.044446
C 0.048902 0.072631 -0.041947
O 0.002256 1.329817 -0.083740
F -1.218651 -0.584651 0.052550
4
Time step 18
F 1.187455 -0.580825 0.044850
C 0.051460 0.072273 -0.043908
O 0.002123 1.330962 -0.083304
F -1.221746 -0.585373 0.053018
4
Time step 19
F 1.189036 -0.580843 0.045254
C 0.054010 0.071955 -0.045871
O 0.001989 1.332079 -0.082867
F -1.224825 -0.586094 0.053485
4
Time step 20
F 1.190609 -0.580865 0.045660
C 0.056549 0.071673 -0.047837
O 0.001854 1.333167 -0.082429
F -1.227887 -0.586811 0.053953
4
Time step 21
F 1.192173 -0.580889 0.046066
C 0.059070 0.071428 -0.049806
O 0.001718 1.334227 -0.081989
F -1.230930 -0.587524 0.054420
4
Time step 22
F 1.193730 -0.580917 0.046473
C 0.061567 0.071223 -0.051778
O 0.001584 1.335255 -0.081548
F -1.233951 -0.588232 0.054887
4
Time step 23
F 1.195279 -0.580950 0.046881
C 0.064035 0.071064 -0.053747
O 0.001453 1.336251 -0.081107
F -1.236949 -0.588937 0.055352
4
Time step 24
F 1.196819 -0.580987 0.047288
C 0.066470 0.070958 -0.055712
O 0.001327 1.337211 -0.080667
F -1.239921 -0.589642 0.055816
4
Time step 25
F 1.198349 -0.581029 0.047693
C 0.068869 0.070908 -0.057668
O 0.001208 1.338135 -0.080229
F -1.242867 -0.590346 0.056277
4
Time step 26
F 1.199869 -0.581076 0.048097
C 0.071234 0.070917 -0.059613
O 0.001098 1.339023 -0.079794
F -1.245787 -0.591052 0.056736
4
Time step 27
F 1.201378 -0.581127 0.048498
C 0.073567 0.070981 -0.061545
O 0.000994 1.339874 -0.079362
F -1.248682 -0.591758 0.057191
4
Time step 28
F 1.202876 -0.581180 0.048896
C 0.075869 0.071096 -0.063462
O 0.000897 1.340688 -0.078934
F -1.251553 -0.592463 0.057643
4
Time step 29
F 1.204366 -0.581236 0.049292
C 0.078143 0.071259 -0.065365
O 0.000804 1.341465 -0.078509
F -1.254400 -0.593164 0.058092
4
Time step 30
F 1.205847 -0.581293 0.049685
C 0.080390 0.071468 -0.067255
O 0.000715 1.342204 -0.078086
F -1.257226 -0.593860 0.058537
4
Time step 31
F 1.207321 -0.581353 0.050076
C 0.082611 0.071726 -0.069133
O 0.000628 1.342903 -0.077667
F -1.260030 -0.594552 0.058979
4
Time step 32
F 1.208788 -0.581417 0.050465
C 0.084803 0.072038 -0.071000
O 0.000545 1.343560 -0.077250
F -1.262810 -0.595239 0.059418
4
Time step 33
F 1.210247 -0.581486 0.050852
C 0.086963 0.072409 -0.072856
O 0.000465 1.344176 -0.076836
F -1.265568 -0.595923 0.059855
4
Time step 34
F 1.211700 -0.581560 0.051238
C 0.089088 0.072844 -0.074701
O 0.000392 1.344748 -0.076425
F -1.268300 -0.596605 0.060288
4
Time step 35
F 1.213145 -0.581641 0.051622
C 0.091175 0.073343 -0.076533
O 0.000325 1.345279 -0.076017
F -1.271007 -0.597287 0.060718
4
Time step 36
F 1.214581 -0.581726 0.052004
C 0.093225 0.073903 -0.078351
O 0.000267 1.345770 -0.075614
F -1.273690 -0.597969 0.061145
4
Time step 37
F 1.216010 -0.581814 0.052383
C 0.095238 0.074520 -0.080154
O 0.000218 1.346222 -0.075214
F -1.276349 -0.598651 0.061569
4
Time step 38
F 1.217430 -0.581906 0.052760
C 0.097219 0.075187 -0.081943
O 0.000175 1.346639 -0.074819
F -1.278984 -0.599331 0.061989
4
Time step 39
F 1.218842 -0.582001 0.053134
C 0.099171 0.075903 -0.083718
O 0.000138 1.347020 -0.074427
F -1.281597 -0.600009 0.062406
4
Time step 40
F 1.220244 -0.582100 0.053507
C 0.101096 0.076668 -0.085483
O 0.000105 1.347366 -0.074038
F -1.284188 -0.600684 0.062820
4
Time step 41
F 1.221637 -0.582204 0.053879
C 0.102998 0.077484 -0.087240
O 0.000074 1.347674 -0.073652
F -1.286756 -0.601356 0.063232
4
Time step 42
F 1.223019 -0.582312 0.054251
C 0.104874 0.078355 -0.088990
O 0.000047 1.347944 -0.073268
F -1.289300 -0.602025 0.063643
4
Time step 43
F 1.224391 -0.582424 0.054622
C 0.106722 0.079281 -0.090732
O 0.000023 1.348173 -0.072886
F -1.291818 -0.602690 0.064051
4
Time step 44
F 1.225751 -0.582539 0.054991
C 0.108537 0.080262 -0.092465
O 0.000005 1.348360 -0.072507
F -1.294310 -0.603352 0.064457
4
Time step 45
F 1.227101 -0.582656 0.055359
C 0.110316 0.081294 -0.094184
O -0.000006 1.348505 -0.072132
F -1.296775 -0.604010 0.064859
4
Time step 46
F 1.228441 -0.582772 0.055724
C 0.112054 0.082370 -0.095886
O -0.000007 1.348611 -0.071761
F -1.299212 -0.604663 0.065257
4
Time step 47
F 1.229772 -0.582887 0.056085
C 0.113749 0.083488 -0.097568
O 0.000002 1.348680 -0.071395
F -1.301621 -0.605311 0.065650
4
Time step 48
F 1.231095 -0.583002 0.056443
C 0.115402 0.084644 -0.099229
O 0.000021 1.348713 -0.071035
F -1.304003 -0.605954 0.066039
4
Time step 49
F 1.232408 -0.583118 0.056797
C 0.117015 0.085842 -0.100871
O 0.000047 1.348712 -0.070680
F -1.306359 -0.606594 0.066422
4
Time step 50
F 1.232408 -0.583118 0.056797
C 0.117015 0.085842 -0.100871
O 0.000047 1.348712 -0.070680
F -1.306359 -0.606594 0.066422
